case300mod.m
function [mpc,branch] = case300
baseMVA = 100.0;

%      bus type  Pdemand     Qdemand      Gshunt      Bshunt     Vmodule      Vangle    baseKV        Vmax        Vmin
bus = [
     1     1     90.0000     49.0000      0.0000      0.0000      1.0284      5.9500    115.0000      1.0600      0.9400
     2     1     56.0000     15.0000      0.0000      0.0000      1.0354      7.7400    115.0000      1.0600      0.9400
     3     1     20.0000      0.0000      0.0000      0.0000      0.9971      6.6400    230.0000      1.0600      0.9400
     4     1      0.0000      0.0000      0.0000      0.0000      1.0308      4.7100    345.0000      1.0600      0.9400
     5     1    353.0000    130.0000      0.0000      0.0000      1.0191      4.6800    115.0000      1.0600      0.9400
     6     1    120.0000     41.0000      0.0000      0.0000      1.0312      6.9900    115.0000      1.0600      0.9400
     7     1      0.0000      0.0000      0.0000      0.0000      0.9934      6.1900    230.0000      1.0600      0.9400
     8     2     63.0000     14.0000      0.0000      0.0000      1.0153      2.4000    115.0000      1.0600      0.9400
     9     1     96.0000     43.0000      0.0000      0.0000      1.0034      2.8500    115.0000      1.0600      0.9400
    10     2    153.0000     33.0000      0.0000      0.0000      1.0205      1.3500    230.0000      1.0600      0.9400
    11     1     83.0000     21.0000      0.0000      0.0000      1.0057      2.4600    115.0000      1.0600      0.9400
    12     1      0.0000      0.0000      0.0000      0.0000      0.9974      5.2100    230.0000      1.0600      0.9400
    13     1     58.0000     10.0000      0.0000      0.0000      0.9977     -0.5500    115.0000      1.0600      0.9400
    14     1    160.0000     60.0000      0.0000      0.0000      0.9991     -4.8100    115.0000      1.0600      0.9400
    15     1    126.7000     23.0000      0.0000      0.0000      1.0343     -8.5900    115.0000      1.0600      0.9400
    16     1      0.0000      0.0000      0.0000      0.0000      1.0315     -2.6500    345.0000      1.0600      0.9400
    17     1    561.0000    220.0000      0.0000      0.0000      1.0649    -13.1000    115.0000      1.0600      0.9400
    18     1      0.0000      0.0000      0.0000      0.0000      0.9820      1.0800    230.0000      1.0600      0.9400
    19     2    605.0000    120.0000      0.0000      0.0000      1.0010     -2.4600    115.0000      1.0600      0.9400
    20     1     77.0000      1.0000      0.0000      0.0000      0.9752      1.6200    230.0000      1.0600      0.9400
    21     1     81.0000     23.0000      0.0000      0.0000      0.9963     -1.9700    115.0000      1.0600      0.9400
    22     1     21.0000      7.0000      0.0000      0.0000      1.0501      3.9400    115.0000      1.0600      0.9400
    23     1      0.0000      0.0000      0.0000      0.0000      1.0057      6.0200    230.0000      1.0600      0.9400
    24     1     45.0000     12.0000      0.0000      0.0000      1.0234      1.4400    115.0000      1.0600      0.9400
    25     1     28.0000      9.0000      0.0000      0.0000      0.9986     -1.7300    115.0000      1.0600      0.9400
    26     1     69.0000     13.0000      0.0000      0.0000      0.9750     -4.9000    115.0000      1.0600      0.9400
    27     1     55.0000      6.0000      0.0000      0.0000      1.0244    -12.0200    115.0000      1.0600      0.9400
    28     1      0.0000      0.0000      0.0000      0.0000      1.0414     -7.9400    345.0000      1.0600      0.9400
    29     1      0.0000      0.0000      0.0000      0.0000      0.9757    -25.7200    115.0000      1.0600      0.9400
    30     1      0.0000      0.0000      0.0000      0.0000      1.0011    -22.5900    230.0000      1.0600      0.9400
    31     1     85.0000     32.0000      0.0000      0.0000      1.0201    -11.2300    115.0000      1.0600      0.9400
    32     1    155.0000     18.0000      0.0000      0.0000      1.0202    -12.5600    115.0000      1.0600      0.9400
    33     1      0.0000      0.0000      0.0000      0.0000      1.0535     -5.8100    345.0000      1.0600      0.9400
    34     1     46.0000    -21.0000      0.0000      0.0000      1.0216    -12.7800    115.0000      1.0600      0.9400
    35     1     86.0000      0.0000      0.0000      0.0000      1.0292    -10.4500    115.0000      1.0600      0.9400
    36     1      0.0000      0.0000      0.0000      0.0000      1.0448     -7.4400    345.0000      1.0600      0.9400
    37     1     39.0000      9.0000      0.0000      0.0000      1.0006    -16.7900    115.0000      1.0600      0.9400
    38     1    195.0000     29.0000      0.0000      0.0000      1.0086    -17.4700    115.0000      1.0600      0.9400
    39     1      0.0000      0.0000      0.0000      0.0000      1.0215    -14.7400    230.0000      1.0600      0.9400
    40     1      0.0000      0.0000      0.0000      0.0000      1.0344    -11.7500    345.0000      1.0600      0.9400
    41     1     58.0000     11.8000      0.0000      0.0000      0.9777    -23.1700    115.0000      1.0600      0.9400
    42     1     41.0000     19.0000      0.0000      0.0000      1.0019    -16.0900    115.0000      1.0600      0.9400
    43     1     92.0000     26.0000      0.0000      0.0000      1.0475     -2.9500    115.0000      1.0600      0.9400
    44     1     -5.0000      5.0000      0.0000      0.0000      1.0253     -8.1500    115.0000      1.0600      0.9400
    45     1     61.0000     28.0000      0.0000      0.0000      0.9979    -11.8600    115.0000      1.0600      0.9400
    46     1     69.0000      3.0000      0.0000      0.0000      0.9959    -17.6000    115.0000      1.0600      0.9400
    47     1     10.0000      1.0000      0.0000      0.0000      1.0050    -16.2500    115.0000      1.0600      0.9400
    48     1     22.0000     10.0000      0.0000      0.0000      1.0150    -12.2100    115.0000      1.0600      0.9400
    49     1     98.0000     20.0000      0.0000      0.0000      1.0335     -8.0000    115.0000      1.0600      0.9400
    50     1     14.0000      1.0000      0.0000      0.0000      0.9918     -5.9900    115.0000      1.0600      0.9400
    51     1    218.0000    106.0000      0.0000      0.0000      0.9789     -5.2900    115.0000      1.0600      0.9400
    52     1      0.0000      0.0000      0.0000      0.0000      1.0246     -9.5600    230.0000      1.0600      0.9400
    53     1    227.0000    110.0000      0.0000      0.0000      0.9906     -3.4700    115.0000      1.0600      0.9400
    54     1      0.0000      0.0000      0.0000      0.0000      1.0160     -1.1000    230.0000      1.0600      0.9400
    55     2     70.0000     30.0000      0.0000      0.0000      0.9583    -17.6200    115.0000      1.0600      0.9400
    56     1      0.0000      0.0000      0.0000      0.0000      0.9480    -12.9700    230.0000      1.0600      0.9400
    57     1      0.0000      0.0000      0.0000      0.0000      0.9630    -25.6600    115.0000      1.0600      0.9400
    58     1     56.0000     20.0000      0.0000      0.0000      0.9513    -35.1600    115.0000      1.0600      0.9400
    59     1    116.0000     38.0000      0.0000      0.0000      0.9793    -29.8800    115.0000      1.0600      0.9400
    60     1     57.0000     19.0000      0.0000      0.0000      0.9696    -27.4800    115.0000      1.0600      0.9400
    61     1    224.0000     71.0000      0.0000      0.0000      0.9775    -25.7700    115.0000      1.0600      0.9400
    62     1      0.0000      0.0000      0.0000      0.0000      0.9964    -22.0000    230.0000      1.0600      0.9400
    63     2    208.0000    107.0000      0.0000      0.0000      0.9632    -26.5400    115.0000      1.0600      0.9400
    64     1     74.0000     28.0000      0.0000      0.0000      0.9837    -24.9400    115.0000      1.0600      0.9400
    65     1      0.0000      0.0000      0.0000      0.0000      0.9900    -24.0500    115.0000      1.0600      0.9400
    66     1     48.0000     14.0000      0.0000      0.0000      0.9820    -24.9700    115.0000      1.0600      0.9400
    67     1     28.0000      7.0000      0.0000      0.0000      0.9872    -24.9700    115.0000      1.0600      0.9400
    68     1      0.0000      0.0000      0.0000      0.0000      1.0340    -18.8900    345.0000      1.0600      0.9400
    69     2     37.0000     13.0000      0.0000      0.0000      1.0250    -17.1600    115.0000      1.0600      0.9400
    70     1      0.0000      0.0000      0.0000      0.0000      0.9872    -17.6800    230.0000      1.0600      0.9400
    71     1      0.0000      0.0000      0.0000      0.0000      0.9909    -14.1900    230.0000      1.0600      0.9400
    72     1      0.0000      0.0000      0.0000      0.0000      0.9921     -7.7700    230.0000      1.0600      0.9400
    73     1      0.0000      0.0000      0.0000      0.0000      1.0151    -20.9600    230.0000      1.0600      0.9400
    74     1     44.2000      0.0000      0.0000      0.0000      1.0317    -11.1300    115.0000      1.0600      0.9400
    75     1     66.0000      0.0000      0.0000      0.0000      1.0272    -11.2300    115.0000      1.0600      0.9400
    76     2     17.4000      0.0000      0.0000      0.0000      1.0520     -9.4000    115.0000      1.0600      0.9400
    77     2     15.8000      0.0000      0.0000      0.0000      1.0520     -6.2000    115.0000      1.0600      0.9400
    78     1     60.3000      0.0000      0.0000      0.0000      0.9930     -9.4200    115.0000      1.0600      0.9400
    79     1     39.9000      0.0000      0.0000      0.0000      1.0183    -13.2400    115.0000      1.0600      0.9400
    80     2     66.7000      0.0000      0.0000      0.0000      1.0000    -14.6000    115.0000      1.0600      0.9400
    81     1     83.5000      0.0000      0.0000      0.0000      0.9894    -20.2700    115.0000      1.0600      0.9400
    82     1      0.0000      0.0000      0.0000      0.0000      1.0060    -14.4500    115.0000      1.0600      0.9400
    83     1     77.8000      0.0000      0.0000      0.0000      1.0008    -15.2300    115.0000      1.0600      0.9400
    84     1     32.0000      0.0000      0.0000      0.0000      1.0288    -12.0600    115.0000      1.0600      0.9400
    85     1      8.6000      0.0000      0.0000      0.0000      0.9958    -17.3300    115.0000      1.0600      0.9400
    86     1     49.6000      0.0000      0.0000      0.0000      1.0223    -12.9400    115.0000      1.0600      0.9400
    87     1      4.6000      0.0000      0.0000      0.0000      1.0095    -16.0300    115.0000      1.0600      0.9400
    88     2    112.1000      0.0000      0.0000      0.0000      0.9900    -20.2600    115.0000      1.0600      0.9400
    89     1     30.7000      0.0000      0.0000      0.0000      0.9749    -26.0600    115.0000      1.0600      0.9400
    90     1     63.0000      0.0000      0.0000      0.0000      0.9730    -24.7200    115.0000      1.0600      0.9400
    91     1     19.6000      0.0000      0.0000      0.0000      0.9725    -28.6900    115.0000      1.0600      0.9400
    92     1     26.2000      0.0000      0.0000      0.0000      0.9700    -25.3800    115.0000      1.0600      0.9400
    93     1     18.2000      0.0000      0.0000      0.0000      0.9747    -28.5900    115.0000      1.0600      0.9400
    94     1      0.0000      0.0000      0.0000      0.0000      0.9603    -13.5700    115.0000      1.0600      0.9400
    95     1      0.0000      0.0000      0.0000      0.0000      1.0249    -12.6900    115.0000      1.0600      0.9400
    96     1      0.0000      0.0000      0.0000    325.0000      0.9348     -4.7200    115.0000      1.0600      0.9400
    97     1     14.1000    650.0000      0.0000      0.0000      0.9298     -4.1200    115.0000      1.0600      0.9400
    98     2      0.0000      0.0000      0.0000      0.0000      1.0435      5.1700    115.0000      1.0600      0.9400
    99     1    777.0000    215.0000      0.0000     55.0000      0.9584     -8.7700    115.0000      1.0600      0.9400
   100     1    535.0000     55.0000      0.0000      0.0000      0.9871    -12.6400    115.0000      1.0600      0.9400
   101     1    229.1000     11.8000      0.0000      0.0000      0.9728    -14.3600    115.0000      1.0600      0.9400
   102     1     78.0000      1.4000      0.0000      0.0000      1.0006    -17.6400    115.0000      1.0600      0.9400
   103     2    276.4000     59.3000      0.0000      0.0000      1.0233    -13.4900    115.0000      1.0600      0.9400
   104     2    514.8000     82.7000      0.0000      0.0000      1.0103    -18.4300    115.0000      1.0600      0.9400
   105     1     57.9000      5.1000      0.0000      0.0000      0.9978    -12.8600    115.0000      1.0600      0.9400
   106     1    380.8000     37.0000      0.0000      0.0000      1.0001    -10.5200    230.0000      1.0600      0.9400
   107     1      0.0000      0.0000      0.0000      0.0000      1.0024     -4.7800    230.0000      1.0600      0.9400
   108     1      0.0000      0.0000      0.0000      0.0000      1.0028     -4.4000    230.0000      1.0600      0.9400
   109     1      0.0000      0.0000      0.0000      0.0000      1.0191      5.5600    230.0000      1.0600      0.9400
   110     1      0.0000      0.0000      0.0000      0.0000      0.9861      6.0600    230.0000      1.0600      0.9400
   111     1      0.0000      0.0000      0.0000      0.0000      1.0045      3.0400    230.0000      1.0600      0.9400
   112     1      0.0000      0.0000      0.0000      0.0000      1.0020     -5.4600    230.0000      1.0600      0.9400
   113     1      0.0000      0.0000      0.0000      0.0000      1.0220     -8.0400    230.0000      1.0600      0.9400
   114     1    169.2000     41.6000      0.0000      0.0000      1.0193     -6.7600    230.0000      1.0600      0.9400
   115     1     55.2000     18.2000      0.0000      0.0000      1.0476      1.5400    230.0000      1.0600      0.9400
   116     1    273.6000     99.8000      0.0000      0.0000      1.0471     -1.4500    230.0000      1.0600      0.9400
   117     2   1019.2000    135.2000      0.0000      0.0000      1.0550     -6.3500    230.0000      1.0600      0.9400
   118     1    595.0000     83.3000      0.0000      0.0000      1.0117     -3.5700    115.0000      1.0600      0.9400
   119     1    387.7000    114.7000      0.0000      0.0000      1.0430     -3.4400    230.0000      1.0600      0.9400
   120     2    145.0000     58.0000      0.0000      0.0000      1.0510      0.0500    230.0000      1.0600      0.9400
   121     1     56.5000     24.5000      0.0000      0.0000      1.0155     -2.7700    230.0000      1.0600      0.9400
   122     2     89.5000     35.5000      0.0000      0.0000      1.0435      4.0300    230.0000      1.0600      0.9400
   123     1      0.0000      0.0000      0.0000      0.0000      1.0160     -0.7000    230.0000      1.0600      0.9400
   124     1     24.0000     14.0000      0.0000      0.0000      1.0081     -0.1600    230.0000      1.0600      0.9400
   125     2      0.0000      0.0000      0.0000      0.0000      1.0528      4.3200    230.0000      1.0600      0.9400
   126     2      0.0000      0.0000      0.0000      0.0000      1.0528      8.3600    230.0000      1.0600      0.9400
   127     1     63.0000     25.0000      0.0000      0.0000      1.0577      0.2800    230.0000      1.0600      0.9400
   128     2      0.0000      0.0000      0.0000      0.0000      1.0735      5.2300    230.0000      1.0600      0.9400
   129     1      0.0000      0.0000      0.0000      0.0000      0.9869      6.3400    230.0000      1.0600      0.9400
   130     1      0.0000      0.0000      0.0000      0.0000      1.0048      4.1300    230.0000      1.0600      0.9400
   131     2     17.0000      9.0000      0.0000      0.0000      1.0535      9.2400    230.0000      1.0600      0.9400
   132     2      0.0000      0.0000      0.0000      0.0000      1.0435     10.4600    230.0000      1.0600      0.9400
   133     1     70.0000      5.0000      0.0000     34.5000      0.9663     -1.8000    115.0000      1.0600      0.9400
   134     1    200.0000     50.0000      0.0000      0.0000      1.0177      6.7500    230.0000      1.0600      0.9400
   135     2     75.0000     50.0000      0.0000      0.0000      0.9630      5.1500    115.0000      1.0600      0.9400
   136     1    123.5000    -24.3000      0.0000      0.0000      0.9845    -11.9300    230.0000      1.0600      0.9400
   137     1      0.0000      0.0000      0.0000      0.0000      0.9987    -11.4000    230.0000      1.0600      0.9400
   138     1     33.0000     16.5000      0.0000      0.0000      0.9867     -9.8200    230.0000      1.0600      0.9400
   139     1      0.0000      0.0000      0.0000      0.0000      0.9998    -12.5500    230.0000      1.0600      0.9400
   140     1     35.0000     15.0000      0.0000      0.0000      1.0360      8.8500    230.0000      1.0600      0.9400
   141     1     85.0000     24.0000      0.0000      0.0000      0.9918     18.5000    230.0000      1.0600      0.9400
   142     1      0.0000      0.4000      0.0000      0.0000      1.0410      2.9100    230.0000      1.0600      0.9400
   143     1      0.0000      0.0000      0.0000   -212.0000      0.9839      9.6600    230.0000      1.0600      0.9400
   144     1      0.0000      0.0000      0.0000      0.0000      1.0002     26.3100    230.0000      1.0600      0.9400
   145     1      0.0000      0.0000      0.0000   -103.0000      0.9973     30.2200    230.0000      1.0600      0.9400
   146     1    299.9000     95.7000      0.0000      0.0000      0.9715     -6.9100    230.0000      1.0600      0.9400
   147     1      0.0000      0.0000      0.0000      0.0000      1.0024     -4.8000    230.0000      1.0600      0.9400
   148     1      0.0000      0.0000      0.0000      0.0000      0.9879     -6.6800    230.0000      1.0600      0.9400
   149     2    481.8000    205.0000      0.0000      0.0000      0.9290      0.0900    115.0000      1.0600      0.9400
   150     2    763.6000    291.1000      0.0000      0.0000      0.9829     -9.9400    115.0000      1.0600      0.9400
   151     1     26.5000      0.0000      0.0000      0.0000      1.0244     -6.2200    115.0000      1.0600      0.9400
   152     1    163.5000     43.0000      0.0000     53.0000      0.9837    -12.7500    115.0000      1.0600      0.9400
   153     1      0.0000      0.0000      0.0000      0.0000      1.0622     -2.6900    115.0000      1.0600      0.9400
   154     1    176.0000     83.0000      0.0000      0.0000      0.9730     -7.2100    115.0000      1.0600      0.9400
   155     2      5.0000      4.0000      0.0000      0.0000      1.0522      4.6700    115.0000      1.0600      0.9400
   156     2     28.0000     12.0000      0.0000      0.0000      1.0077      0.6200    115.0000      1.0600      0.9400
   157     1    427.4000    173.6000      0.0000      0.0000      0.9397     -6.5600    115.0000      1.0600      0.9400
   158     1     74.0000     29.0000      0.0000     45.0000      0.9699     -9.3700    115.0000      1.0600      0.9400
   159     1     69.5000     49.3000      0.0000      0.0000      0.9793     -3.0900    115.0000      1.0600      0.9400
   160     1     73.4000      0.0000      0.0000      0.0000      1.0518     -1.3300    230.0000      1.0600      0.9400
   161     1    240.7000     89.0000      0.0000      0.0000      1.0447     -4.1900    230.0000      1.0600      0.9400
   162     1     40.0000      4.0000      0.0000      0.0000      0.9717      7.1200    115.0000      1.0600      0.9400
   163     1    136.8000     16.6000      0.0000      0.0000      1.0386     -6.8500    230.0000      1.0600      0.9400
   164     2      0.0000      0.0000      0.0000      0.0000      1.0522     -4.3300    230.0000      1.0600      0.9400
   165     2     59.8000     24.3000      0.0000      0.0000      1.0650      2.1700    230.0000      1.0600      0.9400
   166     2     59.8000     24.3000      0.0000      0.0000      1.0650      1.4000    230.0000      1.0600      0.9400
   167     1    182.6000     43.6000      0.0000      0.0000      1.0533     -0.7200    230.0000      1.0600      0.9400
   168     1      7.0000      2.0000      0.0000      0.0000      0.9975    -25.8400     66.0000      1.0600      0.9400
   169     2      0.0000      0.0000      0.0000   -150.0000      1.0551    -20.6200    345.0000      1.0600      0.9400
   170     2    489.0000     53.0000      0.0000      0.0000      1.0435     12.2500    230.0000      1.0600      0.9400
   171     1    800.0000     72.0000      0.0000      0.0000      0.9374    -11.1800    230.0000      1.0600      0.9400
   172     1      0.0000      0.0000      0.0000      0.0000      0.9897    -26.0900     66.0000      1.0600      0.9400
   173     1      0.0000      0.0000      0.0000      0.0000      1.0489    -19.2100    345.0000      1.0600      0.9400
   174     1      0.0000      0.0000      0.0000      0.0000      1.0357    -20.7900    345.0000      1.0600      0.9400
   175     1     10.0000      3.0000      0.0000      0.0000      0.9695    -25.3200    115.0000      1.0600      0.9400
   176     1     43.0000     14.0000      0.0000      0.0000      0.9907    -23.7200    115.0000      1.0600      0.9400
   177     2     64.0000     21.0000      0.0000      0.0000      1.0150    -20.5800    115.0000      1.0600      0.9400
   178     1     35.0000     12.0000      0.0000      0.0000      0.9528    -26.0500    115.0000      1.0600      0.9400
   179     1     27.0000     12.0000      0.0000      0.0000      0.9550    -25.9300    115.0000      1.0600      0.9400
   180     1     41.0000     14.0000      0.0000      0.0000      0.9692    -27.4900     66.0000      1.0600      0.9400
   181     1     38.0000     13.0000      0.0000      0.0000      0.9908    -25.3300     66.0000      1.0600      0.9400
   182     1     42.0000     14.0000      0.0000      0.0000      1.0033    -22.3500    115.0000      1.0600      0.9400
   183     1     72.0000     24.0000      0.0000      0.0000      0.9718    -25.7000     66.0000      1.0600      0.9400
   184     1      0.0000     -5.0000      0.0000      0.0000      0.9838    -26.0700     66.0000      1.0600      0.9400
   185     1     12.0000      2.0000      0.0000      0.0000      0.9992    -27.4100     66.0000      1.0600      0.9400
   186     1    -21.0000    -14.2000      0.0000      0.0000      1.0137    -27.4400     66.0000      1.0600      0.9400
   187     1      7.0000      2.0000      0.0000      0.0000      0.9929    -26.2800     66.0000      1.0600      0.9400
   188     1     38.0000     13.0000      0.0000      0.0000      0.9999    -25.6600     66.0000      1.0600      0.9400
   189     1      0.0000      0.0000      0.0000      0.0000      0.9788    -24.2200    115.0000      1.0600      0.9400
   190     1     96.0000      7.0000      0.0000      0.0000      1.0017    -23.3100    115.0000      1.0600      0.9400
   191     1      0.0000      0.0000      0.0000      0.0000      1.0132    -22.5100    138.0000      1.0600      0.9400
   192     2      0.0000      0.0000      0.0000      0.0000      1.0100    -11.6700     16.5000      1.0600      0.9400
   193     1     22.0000     16.0000      0.0000      0.0000      0.9919    -17.5300    138.0000      1.0600      0.9400
   194     1     47.0000     26.0000      0.0000      0.0000      0.9866    -20.2300    138.0000      1.0600      0.9400
   195     1    176.0000    105.0000      0.0000      0.0000      0.9751    -22.5300    138.0000      1.0600      0.9400
   196     1    100.0000     75.0000      0.0000      0.0000      1.0215    -22.2000    138.0000      1.0600      0.9400
   197     1    131.0000     96.0000      0.0000      0.0000      1.0075    -22.6300    138.0000      1.0600      0.9400
   198     1      0.0000      0.0000      0.0000      0.0000      1.0554    -21.1500    345.0000      1.0600      0.9400
   199     2    285.0000    100.0000      0.0000      0.0000      1.0080    -21.7300    138.0000      1.0600      0.9400
   200     2    171.0000     70.0000      0.0000      0.0000      1.0000    -22.4900    138.0000      1.0600      0.9400
...
];
bus(:,12)=0;
bus(:,8:12)=bus(:,7:11);
bus(:,7)=1;
bus(:,13)=0;
bus(:,12:13)=bus(:,11:12);
bus(:,11)=1;

%bus        Pg         Qg     Qmax     Qmin   Vsetpoint  base   status Pmax     Pmin
gen = [
     8      0.0000      0.0000     10.0000    -10.0000      1.0153    100.0000     1    100.0000      0.0000
    10      0.0000      0.0000     20.0000    -20.0000      1.0205    100.0000     1    100.0000      0.0000
    19      0.0000      0.0000     20.0000    -20.0000      1.0010    100.0000     1    100.0000      0.0000
    55      0.0000      0.0000     25.0000    -25.0000      0.9583    100.0000     1    100.0000      0.0000
    63      0.0000      0.0000     35.0000     12.0000      0.9632    100.0000     1    100.0000      0.0000
    69    375.0000      0.0000    240.0000   -240.0000      1.0250    100.0000     1    475.0000      0.0000
    76    155.0000      0.0000     96.0000    -11.0000      1.0520    100.0000     1    255.0000      0.0000
    77    290.0000      0.0000    153.0000   -153.0000      1.0520    100.0000     1    390.0000      0.0000
    80     68.0000      0.0000     56.0000    -30.0000      1.0000    100.0000     1    168.0000      0.0000
    88    117.0000      0.0000     77.0000    -24.0000      0.9900    100.0000     1    217.0000      0.0000
    98   1930.0000      0.0000   1500.0000   -500.0000      1.0435    100.0000     1   2030.0000      0.0000
   103    240.0000      0.0000    120.0000    -60.0000      1.0233    100.0000     1    340.0000      0.0000
   104      0.0000      0.0000    200.0000    -25.0000      1.0103    100.0000     1    100.0000      0.0000
   117      0.0000      0.0000    350.0000   -125.0000      1.0550    100.0000     1    100.0000      0.0000
   120    281.0000      0.0000     75.0000    -50.0000      1.0510    100.0000     1    381.0000      0.0000
   122    696.0000      0.0000    300.0000   -100.0000      1.0435    100.0000     1    796.0000      0.0000
   125     84.0000      0.0000     35.0000    -15.0000      1.0528    100.0000     1    184.0000      0.0000
   126    217.0000      0.0000    100.0000    -50.0000      1.0528    100.0000     1    317.0000      0.0000
   128    103.0000      0.0000     50.0000    -25.0000      1.0735    100.0000     1    203.0000      0.0000
   131    372.0000      0.0000    175.0000    -50.0000      1.0535    100.0000     1    472.0000      0.0000
   132    216.0000      0.0000     90.0000    -50.0000      1.0435    100.0000     1    316.0000      0.0000
   135      0.0000      0.0000     15.0000    -10.0000      0.9630    100.0000     1    100.0000      0.0000
   149    205.0000      0.0000     90.0000    -40.0000      0.9290    100.0000     1    305.0000      0.0000
   150      0.0000      0.0000    150.0000    -50.0000      0.9829    100.0000     1    100.0000      0.0000
   155    228.0000      0.0000     90.0000    -45.0000      1.0522    100.0000     1    328.0000      0.0000
   156     84.0000      0.0000     35.0000    -15.0000      1.0077    100.0000     1    184.0000      0.0000
   164    200.0000      0.0000     80.0000    -50.0000      1.0522    100.0000     1    300.0000      0.0000
   165   1200.0000      0.0000    400.0000   -100.0000      1.0650    100.0000     1   1300.0000      0.0000
   166   1200.0000      0.0000    400.0000   -100.0000      1.0650    100.0000     1   1300.0000      0.0000
   169    475.0000      0.0000    300.0000   -300.0000      1.0551    100.0000     1    575.0000      0.0000
   170   1973.0000      0.0000   1000.0000  -1000.0000      1.0435    100.0000     1   2073.0000      0.0000
   177    424.0000      0.0000    260.0000   -260.0000      1.0150    100.0000     1    524.0000      0.0000
   192    272.0000      0.0000    150.0000   -150.0000      1.0100    100.0000     1    372.0000      0.0000
   199    100.0000      0.0000     60.0000    -60.0000      1.0080    100.0000     1    200.0000      0.0000
   200    450.0000      0.0000    320.0000   -320.0000      1.0000    100.0000     1    550.0000      0.0000
   201    250.0000      0.0000    300.0000   -300.0000      1.0500    100.0000     1    350.0000      0.0000
   206    303.0000      0.0000    300.0000   -300.0000      1.0000    100.0000     1    403.0000      0.0000
   209    345.0000      0.0000    250.0000   -250.0000      1.0400    100.0000     1    445.0000      0.0000
   212    300.0000      0.0000    500.0000   -500.0000      1.0000    100.0000     1    400.0000      0.0000
   215    600.0000      0.0000    300.0000   -300.0000      1.0165    100.0000     1    700.0000      0.0000
   217    250.0000      0.0000    200.0000   -200.0000      1.0100    100.0000     1    350.0000      0.0000
   218    550.0000      0.0000    400.0000   -400.0000      1.0000    100.0000     1    650.0000      0.0000
   220    575.4300      0.0000    600.0000   -600.0000      1.0500    100.0000     1    675.4300      0.0000
   221    170.0000      0.0000    100.0000     40.0000      0.9930    100.0000     1    270.0000      0.0000
   222     84.0000      0.0000     80.0000     40.0000      1.0100    100.0000     1    184.0000      0.0000
   247    467.0000      0.0000    210.0000   -210.0000      1.0507    100.0000     1    567.0000      0.0000
   248    623.0000      0.0000    280.0000   -280.0000      1.0507    100.0000     1    723.0000      0.0000
   249   1210.0000      0.0000    420.0000   -420.0000      1.0323    100.0000     1   1310.0000      0.0000
   250    234.0000      0.0000    100.0000   -100.0000      1.0145    100.0000     1    334.0000      0.0000
   251    372.0000      0.0000    224.0000   -224.0000      1.0507    100.0000     1    472.0000      0.0000
   252    330.0000      0.0000    350.0000      0.0000      1.0507    100.0000     1    430.0000      0.0000
   253    185.0000      0.0000    120.0000      0.0000      1.0507    100.0000     1    285.0000      0.0000
   254    410.0000      0.0000    224.0000   -224.0000      1.0290    100.0000     1    510.0000      0.0000
   255    500.0000      0.0000    200.0000   -200.0000      1.0500    100.0000     1    600.0000      0.0000
   256     37.0000      0.0000     42.0000      0.0000      1.0145    100.0000     1    137.0000      0.0000
   257      0.0000      0.0000     10.0000      0.0000      1.0507    100.0000     1   2399.0100      0.0000
   258     45.0000      0.0000     25.0000      0.0000      0.9967    100.0000     1    145.0000      0.0000
   259    165.0000      0.0000     90.0000    -90.0000      1.0212    100.0000     1    265.0000      0.0000
   260    400.0000      0.0000    150.0000   -150.0000      1.0145    100.0000     1    500.0000      0.0000
   261    400.0000      0.0000    150.0000      0.0000      1.0017    100.0000     1    500.0000      0.0000
   262    116.0000      0.0000     87.0000      0.0000      0.9893    100.0000     1    216.0000      0.0000
   263   1292.0000      0.0000    600.0000   -100.0000      1.0507    100.0000     1   1392.0000      0.0000
   264    700.0000      0.0000    325.0000   -125.0000      1.0507    100.0000     1    800.0000      0.0000
   265    553.0000      0.0000    300.0000   -200.0000      1.0145    100.0000     1    653.0000      0.0000
   267      0.0000      0.0000      2.0000     -2.0000      0.9945    100.0000     1    100.0000      0.0000
   292      0.0000      0.0000     17.3500    -17.3500      1.0000    100.0000     1    100.0000      0.0000
   294      0.0000      0.0000     12.8300    -12.8000      1.0000    100.0000     1    100.0000      0.0000
   295     50.0000      0.0000     38.0000    -38.0000      1.0000    100.0000     1    150.0000      0.0000
   296      8.0000      0.0000      6.0000     -6.0000      1.0000    100.0000     1    108.0000      0.0000
];

%fbus  tbus         r           x           b      ratea        rateb       ratec   Vf/Vt-ratio     angle   status
branch = [
    31   266      0.0001      0.0005      0.0000   9900.0000      0.0000     75.0000      1.0082      0.0000     1
   266   270      0.0008      0.0035      0.0000   9900.0000      0.0000      0.0000      0.0000      0.0000     1
   266   271      0.0244      0.4368      0.0000   9900.0000      0.0000      0.0000      0.9668      0.0000     1
   266   273      0.0362      0.6490      0.0000   9900.0000      0.0000      0.0000      0.9796      0.0000     1
   270   292      0.0158      0.3749      0.0000   9900.0000      0.0000      0.0000      1.0435      0.0000     1
   270   293      0.0158      0.3749      0.0000   9900.0000      0.0000      0.0000      0.9391      0.0000     1
   270   294      0.0160      0.3805      0.0000   9900.0000      0.0000      0.0000      1.0435      0.0000     1
   270   295      0.0000      0.1520      0.0000   9900.0000      0.0000      0.0000      1.0435      0.0000     1
   270   296      0.0000      0.8000      0.0000   9900.0000      0.0000      0.0000      1.0435      0.0000     1
   271   272      0.0556      0.2467      0.0000   9900.0000      0.0000      0.0000      0.0000      0.0000     1
   271   268      0.1112      0.4933      0.0000   9900.0000      0.0000      0.0000      0.0000      0.0000     1
   271   268      0.1112      0.4933      0.0000   9900.0000      0.0000      0.0000      0.0000      0.0000     1
   273   267      0.0762      0.4329      0.0000   9900.0000      0.0000      0.0000      0.0000      0.0000     1
   273   267      0.0762      0.4329      0.0000   9900.0000      0.0000      0.0000      0.0000      0.0000     1
   267   274      0.0537      0.0703      0.0000   9900.0000      0.0000      0.0000      0.0000      0.0000     1
   274   276      1.1068      0.9528      0.0000   9900.0000      0.0000      0.0000      0.0000      0.0000     1
   274   275      0.4436      2.8152      0.0000   9900.0000      0.0000      0.0000      1.0000      0.0000     1
   267   277      0.5075      3.2202      0.0000   9900.0000      0.0000      0.0000      1.0000      0.0000     1
   276   278      0.6669      3.9440      0.0000   9900.0000      0.0000      0.0000      1.0000      0.0000     1
   276   279      0.6113      3.6152      0.0000   9900.0000      0.0000      0.0000      1.0000      0.0000     1
   272   297      0.4412      2.9668      0.0000   9900.0000      0.0000      0.0000      1.0000      0.0000     1
   272   298      0.3079      2.0570      0.0000   9900.0000      0.0000      0.0000      1.0000      0.0000     1
   272   268      0.0558      0.2467      0.0000   9900.0000      0.0000      0.0000      0.0000      0.0000     1
   268   280      0.7363      4.6724      0.0000   9900.0000      0.0000      0.0000      1.0000      0.0000     1
   268   281      0.7698      4.8846      0.0000   9900.0000      0.0000      0.0000      1.0000      0.0000     1
   268   282      0.7573      4.8056      0.0000   9900.0000      0.0000      0.0000      1.0000      0.0000     1
   268   291      0.0738      0.0635      0.0000   9900.0000      0.0000      0.0000      0.0000      0.0000     1
   291   269      0.0383      0.0289      0.0000   9900.0000      0.0000      0.0000      0.0000      0.0000     1
   269   288      0.3661      2.4560      0.0000   9900.0000      0.0000      0.0000      1.0000      0.0000     1
   269   289      1.0593      5.4536      0.0000   9900.0000      0.0000      0.0000      1.0000      0.0000     1
   269   290      0.1567      1.6994      0.0000   9900.0000      0.0000      0.0000      1.0000      0.0000     1
   268   283      0.1301      1.3912      0.0000   9900.0000      0.0000      0.0000      1.0000      0.0000     1
   268   284      0.5448      3.4572      0.0000   9900.0000      0.0000      0.0000      1.0000      0.0000     1
   268   285      0.1543      1.6729      0.0000   9900.0000      0.0000      0.0000      1.0000      0.0000     1
   268   286      0.3849      2.5712      0.0000   9900.0000      0.0000      0.0000      1.0000      0.0000     1
   268   287      0.4412      2.9668      0.0000   9900.0000      0.0000      0.0000      1.0000      0.0000     1
   273   299      0.2355      0.9904      0.0000   9900.0000      0.0000      0.0000      0.0000      0.0000     1
   294   300      0.0000      0.7500      0.0000   9900.0000      0.0000      0.0000      0.9583      0.0000     1
     1     5      0.0010      0.0060      0.0000   9900.0000      0.0000      0.0000      0.0000      0.0000     1
     2     6      0.0010      0.0090      0.0000   9900.0000      0.0000      0.0000      0.0000      0.0000     1
     2     8      0.0060      0.0270      0.0540   9900.0000      0.0000      0.0000      0.0000      0.0000     1
     3     7      0.0000      0.0030      0.0000   9900.0000      0.0000      0.0000      0.0000      0.0000     1
     3    18      0.0080      0.0690      0.1390   9900.0000      0.0000      0.0000      0.0000      0.0000     1
     3   129      0.0010      0.0070      0.0000   9900.0000      0.0000      0.0000      0.0000      0.0000     1
     4    16      0.0020      0.0190      1.1270   9900.0000      0.0000      0.0000      0.0000      0.0000     1
     5     9      0.0060      0.0290      0.0180   9900.0000      0.0000      0.0000      0.0000      0.0000     1
     7    12      0.0010      0.0090      0.0700   9900.0000      0.0000      0.0000      0.0000      0.0000     1
     7   110      0.0010      0.0070      0.0140   9900.0000      0.0000      0.0000      0.0000      0.0000     1
     8    11      0.0130      0.0595      0.0330   9900.0000      0.0000      0.0000      0.0000      0.0000     1
     8    14      0.0130      0.0420      0.0810   9900.0000      0.0000      0.0000      0.0000      0.0000     1
     9    11      0.0060      0.0270      0.0130   9900.0000      0.0000      0.0000      0.0000      0.0000     1
    11    13      0.0080      0.0340      0.0180   9900.0000      0.0000      0.0000      0.0000      0.0000     1
    12    20      0.0020      0.0150      0.1180   9900.0000      0.0000      0.0000      0.0000      0.0000     1
    13    19      0.0060      0.0340      0.0160   9900.0000      0.0000      0.0000      0.0000      0.0000     1
    14    15      0.0140      0.0420      0.0970   9900.0000      0.0000      0.0000      0.0000      0.0000     1
    15    31      0.0650      0.2480      0.1210   9900.0000      0.0000      0.0000      0.0000      0.0000     1
    15    74      0.0990      0.2480      0.0350   9900.0000      0.0000      0.0000      0.0000      0.0000     1
    15    75      0.0960      0.3630      0.0480   9900.0000      0.0000      0.0000      0.0000      0.0000     1
    16    36      0.0020      0.0220      1.2800   9900.0000      0.0000      0.0000      0.0000      0.0000     1
    18    20      0.0020      0.0180      0.0360   9900.0000      0.0000      0.0000      0.0000      0.0000     1
    18    72      0.0130      0.0800      0.1510   9900.0000      0.0000      0.0000      0.0000      0.0000     1
    19    21      0.0160      0.0330      0.0150   9900.0000      0.0000      0.0000      0.0000      0.0000     1
    19    26      0.0690      0.1860      0.0980   9900.0000      0.0000      0.0000      0.0000      0.0000     1
    20    23      0.0040      0.0340      0.2800   9900.0000      0.0000      0.0000      0.0000      0.0000     1
    21    22      0.0520      0.1110      0.0500   9900.0000      0.0000      0.0000      0.0000      0.0000     1
    22    24      0.0190      0.0390      0.0180   9900.0000      0.0000      0.0000      0.0000      0.0000     1
    23   231      0.0070      0.0680      0.1340   9900.0000      0.0000      0.0000      0.0000      0.0000     1
    24    25      0.0360      0.0710      0.0340   9900.0000      0.0000      0.0000      0.0000      0.0000     1
    25    26      0.0450      0.1200      0.0650   9900.0000      0.0000      0.0000      0.0000      0.0000     1
    25   232      0.0430      0.1300      0.0140   9900.0000      0.0000      0.0000      0.0000      0.0000     1
    27    28      0.0000      0.0630      0.0000   9900.0000      0.0000      0.0000      0.0000      0.0000     1
    27    32      0.0025      0.0120      0.0130   9900.0000      0.0000      0.0000      0.0000      0.0000     1
    27    34      0.0060      0.0290      0.0200   9900.0000      0.0000      0.0000      0.0000      0.0000     1
    27    35      0.0070      0.0430      0.0260   9900.0000      0.0000      0.0000      0.0000      0.0000     1
    28    36      0.0010      0.0080      0.0420   9900.0000      0.0000      0.0000      0.0000      0.0000     1
    29    60      0.0120      0.0600      0.0080   9900.0000      0.0000      0.0000      0.0000      0.0000     1
    29    63      0.0060      0.0140      0.0020   9900.0000      0.0000      0.0000      0.0000      0.0000     1
    29    64      0.0100      0.0290      0.0030   9900.0000      0.0000      0.0000      0.0000      0.0000     1
    30    73      0.0040      0.0270      0.0430   9900.0000      0.0000      0.0000      0.0000      0.0000     1
    31    32      0.0080      0.0470      0.0080   9900.0000      0.0000      0.0000      0.0000      0.0000     1
    31    34      0.0220      0.0640      0.0070   9900.0000      0.0000      0.0000      0.0000      0.0000     1
    31    35      0.0100      0.0360      0.0200   9900.0000      0.0000      0.0000      0.0000      0.0000     1
    31    43      0.0170      0.0810      0.0480   9900.0000      0.0000      0.0000      0.0000      0.0000     1
    31    74      0.1020      0.2540      0.0330   9900.0000      0.0000      0.0000      0.0000      0.0000     1
    31    75      0.0470      0.1270      0.0160   9900.0000      0.0000      0.0000      0.0000      0.0000     1
    32    35      0.0080      0.0370      0.0200   9900.0000      0.0000      0.0000      0.0000      0.0000     1
    32    37      0.0320      0.0870      0.0400   9900.0000      0.0000      0.0000      0.0000      0.0000     1
    33    36      0.0006      0.0064      0.4040   9900.0000      0.0000      0.0000      0.0000      0.0000     1
    34    42      0.0260      0.1540      0.0220   9900.0000      0.0000      0.0000      0.0000      0.0000     1
    35    36      0.0000      0.0290      0.0000   9900.0000      0.0000      0.0000      0.0000      0.0000     1
    35    43      0.0650      0.1910      0.0200   9900.0000      0.0000      0.0000      0.0000      0.0000     1
    35    44      0.0310      0.0890      0.0360   9900.0000      0.0000      0.0000      0.0000      0.0000     1
    36    40      0.0020      0.0140      0.8060   9900.0000      0.0000      0.0000      0.0000      0.0000     1
    37    38      0.0260      0.0720      0.0350   9900.0000      0.0000      0.0000      0.0000      0.0000     1
    37    42      0.0950      0.2620      0.0320   9900.0000      0.0000      0.0000      0.0000      0.0000     1
    37    46      0.0130      0.0390      0.0160   9900.0000      0.0000      0.0000      0.0000      0.0000     1
    38    41      0.0270      0.0840      0.0390   9900.0000      0.0000      0.0000      0.0000      0.0000     1
    38    47      0.0280      0.0840      0.0370   9900.0000      0.0000      0.0000      0.0000      0.0000     1
    39    52      0.0070      0.0410      0.3120   9900.0000      0.0000      0.0000      0.0000      0.0000     1
    39    62      0.0090      0.0540      0.4110   9900.0000      0.0000      0.0000      0.0000      0.0000     1
    40    68      0.0050      0.0420      0.6900   9900.0000      0.0000      0.0000      0.0000      0.0000     1
    41    61      0.0520      0.1450      0.0730   9900.0000      0.0000      0.0000      0.0000      0.0000     1
    41    92      0.0430      0.1180      0.0130   9900.0000      0.0000      0.0000      0.0000      0.0000     1
    42    87      0.0250      0.0620      0.0070   9900.0000      0.0000      0.0000      0.0000      0.0000     1
    43    44      0.0310      0.0940      0.0430   9900.0000      0.0000      0.0000      0.0000      0.0000     1
    44    45      0.0370      0.1090      0.0490   9900.0000      0.0000      0.0000      0.0000      0.0000     1
    45    48      0.0270      0.0800      0.0360   9900.0000      0.0000      0.0000      0.0000      0.0000     1
    46    47      0.0250      0.0730      0.0350   9900.0000      0.0000      0.0000      0.0000      0.0000     1
    47    48      0.0350      0.1030      0.0470   9900.0000      0.0000      0.0000      0.0000      0.0000     1
    48    49      0.0650      0.1690      0.0820   9900.0000      0.0000      0.0000      0.0000      0.0000     1
    49    50      0.0460      0.0800      0.0360   9900.0000      0.0000      0.0000      0.0000      0.0000     1
    49    55      0.1590      0.5370      0.0710   9900.0000      0.0000      0.0000      0.0000      0.0000     1
    50    51      0.0090      0.0260      0.0050   9900.0000      0.0000      0.0000      0.0000      0.0000     1
    51    53      0.0020      0.0130      0.0150   9900.0000      0.0000      0.0000      0.0000      0.0000     1
    52    54      0.0090      0.0650      0.4850   9900.0000      0.0000      0.0000      0.0000      0.0000     1
    54    56      0.0160      0.1050      0.2030   9900.0000      0.0000      0.0000      0.0000      0.0000     1
    54   123      0.0010      0.0070      0.0130   9900.0000      0.0000      0.0000      0.0000      0.0000     1
    55   236      0.0265      0.1720      0.0260   9900.0000      0.0000      0.0000      0.0000      0.0000     1
    57   190      0.0510      0.2320      0.0280   9900.0000      0.0000      0.0000      0.0000      0.0000     1
    57    66      0.0510      0.1570      0.0230   9900.0000      0.0000      0.0000      0.0000      0.0000     1
    58    59      0.0320      0.1000      0.0620   9900.0000      0.0000      0.0000      0.0000      0.0000     1
    58   237      0.0200      0.1234      0.0280   9900.0000      0.0000      0.0000      0.0000      0.0000     1
    59    60      0.0360      0.1310      0.0680   9900.0000      0.0000      0.0000      0.0000      0.0000     1
    59    61      0.0340      0.0990      0.0470   9900.0000      0.0000      0.0000      0.0000      0.0000     1
    60    64      0.0180      0.0870      0.0110   9900.0000      0.0000      0.0000      0.0000      0.0000     1
    60   238      0.0256      0.1930      0.0000   9900.0000      0.0000      0.0000      0.0000      0.0000     1
    61    63      0.0210      0.0570      0.0300   9900.0000      0.0000      0.0000      0.0000      0.0000     1
    61    66      0.0180      0.0520      0.0180   9900.0000      0.0000      0.0000      0.0000      0.0000     1
    62    73      0.0040      0.0270      0.0500   9900.0000      0.0000      0.0000      0.0000      0.0000     1
    62   240      0.0286      0.2013      0.3790   9900.0000      0.0000      0.0000      0.0000      0.0000     1
    63    64      0.0160      0.0430      0.0040   9900.0000      0.0000      0.0000      0.0000      0.0000     1
    64    65      0.0010      0.0060      0.0070   9900.0000      0.0000      0.0000      0.0000      0.0000     1
    64    67      0.0140      0.0700      0.0380   9900.0000      0.0000      0.0000      0.0000      0.0000     1
    64   239      0.0891      0.2676      0.0290   9900.0000      0.0000      0.0000      0.0000      0.0000     1
    64   241      0.0782      0.2127      0.0220   9900.0000      0.0000      0.0000      0.0000      0.0000     1
    65    66      0.0060      0.0220      0.0110   9900.0000      0.0000      0.0000      0.0000      0.0000     1
    65    69      0.0000      0.0360      0.0000   9900.0000      0.0000      0.0000      0.0000      0.0000     1
    66   190      0.0990      0.3750      0.0510   9900.0000      0.0000      0.0000      0.0000      0.0000     1
    67   190      0.0220      0.1070      0.0580   9900.0000      0.0000      0.0000      0.0000      0.0000     1
    68   173      0.0035      0.0330      0.5300   9900.0000      0.0000      0.0000      0.0000      0.0000     1
    68   174      0.0035      0.0330      0.5300   9900.0000      0.0000      0.0000      0.0000      0.0000     1
    70    71      0.0080      0.0640      0.1280   9900.0000      0.0000      0.0000      0.0000      0.0000     1
    71    72      0.0120      0.0930      0.1830   9900.0000      0.0000      0.0000      0.0000      0.0000     1
    71   234      0.0060      0.0480      0.0920   9900.0000      0.0000      0.0000      0.0000      0.0000     1
    74    76      0.0470      0.1190      0.0140   9900.0000      0.0000      0.0000      0.0000      0.0000     1
    75    77      0.0320      0.1740      0.0240   9900.0000      0.0000      0.0000      0.0000      0.0000     1
    76    78      0.1000      0.2530      0.0310   9900.0000      0.0000      0.0000      0.0000      0.0000     1
    76    79      0.0220      0.0770      0.0390   9900.0000      0.0000      0.0000      0.0000      0.0000     1
    77    84      0.0190      0.1440      0.0170   9900.0000      0.0000      0.0000      0.0000      0.0000     1
    77    86      0.0170      0.0920      0.0120   9900.0000      0.0000      0.0000      0.0000      0.0000     1
    78    79      0.2780      0.4270      0.0430   9900.0000      0.0000      0.0000      0.0000      0.0000     1
    79    82      0.0220      0.0530      0.0070   9900.0000      0.0000      0.0000      0.0000      0.0000     1
    79    83      0.0380      0.0920      0.0120   9900.0000      0.0000      0.0000      0.0000      0.0000     1
    79    84      0.0480      0.1220      0.0150   9900.0000      0.0000      0.0000      0.0000      0.0000     1
    80    82      0.0240      0.0640      0.0070   9900.0000      0.0000      0.0000      0.0000      0.0000     1
    80    83      0.0340      0.1210      0.0150   9900.0000      0.0000      0.0000      0.0000      0.0000     1
    81    87      0.0530      0.1350      0.0170   9900.0000      0.0000      0.0000      0.0000      0.0000     1
    81    88      0.0020      0.0040      0.0020   9900.0000      0.0000      0.0000      0.0000      0.0000     1
    81    89      0.0450      0.3540      0.0440   9900.0000      0.0000      0.0000      0.0000      0.0000     1
    81    90      0.0500      0.1740      0.0220   9900.0000      0.0000      0.0000      0.0000      0.0000     1
    82    83      0.0160      0.0380      0.0040   9900.0000      0.0000      0.0000      0.0000      0.0000     1
    83    85      0.0430      0.0640      0.0270   9900.0000      0.0000      0.0000      0.0000      0.0000     1
    84    86      0.0190      0.0620      0.0080   9900.0000      0.0000      0.0000      0.0000      0.0000     1
    85    88      0.0760      0.1300      0.0440   9900.0000      0.0000      0.0000      0.0000      0.0000     1
    85   233      0.0440      0.1240      0.0150   9900.0000      0.0000      0.0000      0.0000      0.0000     1
    86    87      0.0120      0.0880      0.0110   9900.0000      0.0000      0.0000      0.0000      0.0000     1
    86    90      0.1570      0.4000      0.0470   9900.0000      0.0000      0.0000      0.0000      0.0000     1
    88   235      0.0740      0.2080      0.0260   9900.0000      0.0000      0.0000      0.0000      0.0000     1
    89    90      0.0700      0.1840      0.0210   9900.0000      0.0000      0.0000      0.0000      0.0000     1
    89    92      0.1000      0.2740      0.0310   9900.0000      0.0000      0.0000      0.0000      0.0000     1
    89    93      0.1090      0.3930      0.0360   9900.0000      0.0000      0.0000      0.0000      0.0000     1
    90    91      0.1420      0.4040      0.0500   9900.0000      0.0000      0.0000      0.0000      0.0000     1
    91    93      0.0170      0.0420      0.0060   9900.0000      0.0000      0.0000      0.0000      0.0000     1
    94   101      0.0036      0.0199      0.0040   9900.0000      0.0000      0.0000      0.0000      0.0000     1
    95    99      0.0020      0.1049      0.0010   9900.0000      0.0000      0.0000      0.0000      0.0000     1
    96    97      0.0001      0.0018      0.0170   9900.0000      0.0000      0.0000      0.0000      0.0000     1
    97    98      0.0000      0.0271      0.0000   9900.0000      0.0000      0.0000      0.0000      0.0000     1
    97   245      0.0000      0.6163      0.0000   9900.0000      0.0000      0.0000      0.0000      0.0000     1
   245    99      0.0000     -0.3697      0.0000   9900.0000      0.0000      0.0000      0.0000      0.0000     1
    97   100      0.0022      0.2915      0.0000   9900.0000      0.0000      0.0000      0.0000      0.0000     1
    98    99      0.0000      0.0339      0.0000   9900.0000      0.0000      0.0000      0.0000      0.0000     1
    98   100      0.0000      0.0582      0.0000   9900.0000      0.0000      0.0000      0.0000      0.0000     1
   101   102      0.0808      0.2344      0.0290   9900.0000      0.0000      0.0000      0.0000      0.0000     1
   101   104      0.0965      0.3669      0.0540   9900.0000      0.0000      0.0000      0.0000      0.0000     1
   102   103      0.0360      0.1076      0.1170   9900.0000      0.0000      0.0000      0.0000      0.0000     1
   102   104      0.0476      0.1414      0.1490   9900.0000      0.0000      0.0000      0.0000      0.0000     1
   104   105      0.0006      0.0197      0.0000   9900.0000      0.0000      0.0000      0.0000      0.0000     1
   105   106      0.0059      0.0405      0.2500   9900.0000      0.0000      0.0000      0.0000      0.0000     1
   105   108      0.0115      0.1106      0.1850   9900.0000      0.0000      0.0000      0.0000      0.0000     1
   105   111      0.0198      0.1688      0.3210   9900.0000      0.0000      0.0000      0.0000      0.0000     1
   105   136      0.0050      0.0500      0.3300   9900.0000      0.0000      0.0000      0.0000      0.0000     1
   105   137      0.0077      0.0538      0.3350   9900.0000      0.0000      0.0000      0.0000      0.0000     1
   105   148      0.0165      0.1157      0.1710   9900.0000      0.0000      0.0000      0.0000      0.0000     1
   106   107      0.0059      0.0577      0.0950   9900.0000      0.0000      0.0000      0.0000      0.0000     1
   106   113      0.0049      0.0336      0.2080   9900.0000      0.0000      0.0000      0.0000      0.0000     1
   106   147      0.0059      0.0577      0.0950   9900.0000      0.0000      0.0000      0.0000      0.0000     1
   107   109      0.0078      0.0773      0.1260   9900.0000      0.0000      0.0000      0.0000      0.0000     1
   107   112      0.0026      0.0193      0.0300   9900.0000      0.0000      0.0000      0.0000      0.0000     1
   108   109      0.0076      0.0752      0.1220   9900.0000      0.0000      0.0000      0.0000      0.0000     1
   108   112      0.0021      0.0186      0.0300   9900.0000      0.0000      0.0000      0.0000      0.0000     1
...
];

% bus   model  startup  shutdown n_coef  c2      c1     c0     Xd        H=1/2*Tj   D
genpara = [
     8     2      0.0000      0.0000     3  0.01000000     40.0000      0.0000      0.0250     25.0000      0.0000
    10     2      0.0000      0.0000     3  0.01000000     40.0000      0.0000      0.0250     25.0000      0.0000
    19     2      0.0000      0.0000     3  0.01000000     40.0000      0.0000      0.0250     25.0000      0.0000
    55     2      0.0000      0.0000     3  0.01000000     40.0000      0.0000      0.0250     25.0000      0.0000
    63     2      0.0000      0.0000     3  0.01000000     40.0000      0.0000      0.0250     25.0000      0.0000
    69     2      0.0000      0.0000     3  0.02666670     20.0000      0.0000      0.0550     80.0000      0.0000
    76     2      0.0000      0.0000     3  0.06451610     20.0000      0.0000      0.0350     40.0000      0.0000
    77     2      0.0000      0.0000     3  0.03448280     20.0000      0.0000      0.0350     40.0000      0.0000
    80     2      0.0000      0.0000     3  0.14705900     20.0000      0.0000      0.0350     40.0000      0.0000
    88     2      0.0000      0.0000     3  0.08547010     20.0000      0.0000      0.0350     40.0000      0.0000
    98     2      0.0000      0.0000     3  0.00518135     20.0000      0.0000      0.1250    200.0000      0.0000
   103     2      0.0000      0.0000     3  0.04166670     20.0000      0.0000      0.0350     40.0000      0.0000
   104     2      0.0000      0.0000     3  0.01000000     40.0000      0.0000      0.0250     25.0000      0.0000
   117     2      0.0000      0.0000     3  0.01000000     40.0000      0.0000      0.0250     25.0000      0.0000
   120     2      0.0000      0.0000     3  0.03558720     20.0000      0.0000      0.0350     40.0000      0.0000
   122     2      0.0000      0.0000     3  0.01436780     20.0000      0.0000      0.0850    105.0000      0.0000
   125     2      0.0000      0.0000     3  0.11904800     20.0000      0.0000      0.0350     40.0000      0.0000
   126     2      0.0000      0.0000     3  0.04608290     20.0000      0.0000      0.0350     40.0000      0.0000
   128     2      0.0000      0.0000     3  0.09708740     20.0000      0.0000      0.0350     40.0000      0.0000
   131     2      0.0000      0.0000     3  0.02688170     20.0000      0.0000      0.0550     80.0000      0.0000
   132     2      0.0000      0.0000     3  0.04629630     20.0000      0.0000      0.0350     40.0000      0.0000
   135     2      0.0000      0.0000     3  0.01000000     40.0000      0.0000      0.0250     25.0000      0.0000
   149     2      0.0000      0.0000     3  0.04878050     20.0000      0.0000      0.0350     40.0000      0.0000
   150     2      0.0000      0.0000     3  0.01000000     40.0000      0.0000      0.0250     25.0000      0.0000
   155     2      0.0000      0.0000     3  0.04385960     20.0000      0.0000      0.0350     40.0000      0.0000
   156     2      0.0000      0.0000     3  0.11904800     20.0000      0.0000      0.0350     40.0000      0.0000
   164     2      0.0000      0.0000     3  0.05000000     20.0000      0.0000      0.0350     40.0000      0.0000
   165     2      0.0000      0.0000     3  0.00833333     20.0000      0.0000      0.0950    120.0000      0.0000
   166     2      0.0000      0.0000     3  0.00833333     20.0000      0.0000      0.0780    105.0000      0.0000
   169     2      0.0000      0.0000     3  0.02105260     20.0000      0.0000      0.0750     90.0000      0.0000
   170     2      0.0000      0.0000     3  0.00506842     20.0000      0.0000      0.1250    200.0000      0.0000
   177     2      0.0000      0.0000     3  0.02358490     20.0000      0.0000      0.0550     80.0000      0.0000
   192     2      0.0000      0.0000     3  0.03676470     20.0000      0.0000      0.0350     40.0000      0.0000
   199     2      0.0000      0.0000     3  0.10000000     20.0000      0.0000      0.0350     40.0000      0.0000
   200     2      0.0000      0.0000     3  0.02222220     20.0000      0.0000      0.0550     80.0000      0.0000
   201     2      0.0000      0.0000     3  0.04000000     20.0000      0.0000      0.0350     40.0000      0.0000
   206     2      0.0000      0.0000     3  0.03300330     20.0000      0.0000      0.0350     40.0000      0.0000
   209     2      0.0000      0.0000     3  0.02898550     20.0000      0.0000      0.0350     40.0000      0.0000
   212     2      0.0000      0.0000     3  0.03333330     20.0000      0.0000      0.0350     40.0000      0.0000
   215     2      0.0000      0.0000     3  0.01666670     20.0000      0.0000      0.0850    100.0000      0.0000
...